Circuit: * D:\Haashim Shahzada\Documents\github\automated-tourniquet\schematic_design\AT01\Sims\Draft1.asc

U1:c17: Increased Cpar to 1e-15
U1:c15: Increased Cpar to 8e-12
Direct Newton iteration failed to find .op point.  (Use ".option noopiter" to skip.)
Starting Gmin stepping
Gmin = 10
Gmin = 1.07374
vernier = 0.5
vernier = 0.25
vernier = 0.125
vernier = 0.0625
Gmin = 0.995033
vernier = 0.03125
vernier = 0.015625
vernier = 0.0078125
vernier = 0.00390625
Gmin = 0.999816
vernier = 0.00195312
vernier = 0.000976562
vernier = 0.000488281
Gmin = 0
Gmin stepping failed

Starting source stepping with srcstepmethod=0
Source Step = 3.0303%
Source Step = 14.3939%
Source Step = 21.9697%
Source Step = 22.7421%
Source Step = 22.7717%
Source Step = 22.8013%
Source Step = 22.8308%
Source Step = 22.8604%
Source Step = 22.89%
vernier = 0.00146484
Source Step = 22.9315%
Source Step = 22.9759%
Source Step = 23.0202%
Source Step = 23.0646%
Source Step = 23.109%
vernier = 0.00219727
Source Step = 23.1689%
Source Step = 23.2355%
Source Step = 23.3021%
Source Step = 23.3687%
Source Step = 23.4353%
vernier = 0.0032959
Source Step = 23.5218%
Source Step = 23.6217%
Source Step = 23.7216%
Source Step = 23.8215%
Source Step = 23.9213%
vernier = 0.00494385
Source Step = 24.0462%
Source Step = 24.196%
Source Step = 24.3458%
Source Step = 24.4956%
Source Step = 24.6454%
vernier = 0.00741577
Source Step = 24.8252%
Source Step = 25.0499%
Source Step = 25.2747%
Source Step = 25.3252%
Source Step = 25.3814%
Source Step = 25.4376%
Source Step = 25.4938%
Source Step = 25.5499%
vernier = 0.00278091
Source Step = 25.6258%
Source Step = 25.7101%
Source Step = 25.7943%
Source Step = 25.8786%
Source Step = 25.9629%
vernier = 0.00417137
Source Step = 26.0724%
Source Step = 26.1988%
Source Step = 26.3252%
Source Step = 26.4516%
Source Step = 26.578%
vernier = 0.00625706
Source Step = 26.736%
Source Step = 26.9257%
Source Step = 27.1153%
Source Step = 27.3049%
Source Step = 27.4945%
vernier = 0.00938559
Source Step = 27.722%
Source Step = 28.0064%
Source Step = 28.2908%
Source Step = 28.5752%
Source Step = 28.8597%
vernier = 0.0140784
Source Step = 29.1867%
Source Step = 29.6133%
Source Step = 30.04%
Source Step = 30.4666%
Starting source stepping with srcstepmethod=1
Source Step = 3.0303%
Source Step = 33.3333%
vernier = 0.25
Source stepping failed

Pseudo transient terminated at 101.314 s, solution accepted ready or not!
Ignoring empty pin current: Ix(u1:2)
Ignoring empty pin current: Ix(u1:2)

Date: Fri Apr  5 08:48:21 2024
Total elapsed time: 0.796 seconds.

tnom = 27
temp = 27
method = modified trap
totiter = 10413
traniter = 256
tranpoints = 129
accept = 129
rejected = 26
matrix size = 47
fillins = 102
solver = Normal
Avg thread counts: 11.1/12.0/12.0/11.1
Matrix Compiler1: 9.54 KB object code size  1.5/0.8/[0.6]
Matrix Compiler2: 5.60 KB object code size  0.8/1.2/[0.5]

