Circuit: * D:\Haashim Shahzada\Documents\github\automated-tourniquet\schematic_design\AT01\Sims\Draft1.asc

U1:c17: Increased Cpar to 1e-15
U1:c15: Increased Cpar to 8e-12
Direct Newton iteration failed to find .op point.  (Use ".option noopiter" to skip.)
Starting Gmin stepping
Gmin = 10
Gmin = 1.07374
vernier = 0.5
vernier = 0.25
vernier = 0.125
Gmin = 0.696858
vernier = 0.0625
vernier = 0.03125
vernier = 0.015625
vernier = 0.0078125
Gmin = 0.688766
vernier = 0.00390625
vernier = 0.00195312
vernier = 0.000976562
Gmin = 0.686752
vernier = 0.000488281
Singular matrix:  Check node u1:n023
   Iteration No. 8
Gmin = 0
Singular matrix:  Check node u1:n023
   Iteration No. 1
Gmin stepping failed

Starting source stepping with srcstepmethod=0
Source Step = 3.0303%
Source Step = 25.7576%
vernier = 0.0625
Source Step = 25.6984%
Source Step = 25.725%
Source Step = 25.7546%
Source Step = 25.7842%
Source Step = 25.8138%
Source Step = 25.8434%
Source Step = 25.873%
Source Step = 25.9026%
Source Step = 25.9322%
Source Step = 25.9618%
vernier = 0.00146484
Source Step = 26.0032%
Source Step = 26.0476%
Source Step = 26.092%
Source Step = 26.1364%
Source Step = 26.1808%
vernier = 0.00219727
Source Step = 26.2407%
Source Step = 26.3073%
Source Step = 26.3738%
Source Step = 26.4404%
Source Step = 26.507%
Source Step = 26.5736%
Source Step = 26.6402%
Source Step = 26.7068%
vernier = 0.0032959
Source Step = 26.8%
Source Step = 26.8999%
Source Step = 26.9997%
Source Step = 27.0996%
Source Step = 27.1995%
vernier = 0.00494385
Source Step = 27.3343%
Source Step = 27.4841%
Source Step = 27.6077%
Source Step = 27.6452%
Source Step = 27.6826%
Source Step = 27.7201%
Source Step = 27.7575%
Source Step = 27.795%
vernier = 0.00185394
Source Step = 27.8474%
Source Step = 27.9036%
Source Step = 27.9598%
Source Step = 28.016%
Source Step = 28.0721%
vernier = 0.00278091
Source Step = 28.148%
Source Step = 28.2323%
Source Step = 28.3165%
Source Step = 28.4008%
Source Step = 28.4851%
vernier = 0.00417137
Source Step = 28.5946%
Source Step = 28.721%
Source Step = 28.8474%
Source Step = 28.9738%
Source Step = 29.1002%
Source Step = 29.1571%
Source Step = 29.1887%
Source Step = 29.2203%
Source Step = 29.2519%
Source Step = 29.2835%
vernier = 0.00156426
Source Step = 29.3167%
Source Step = 29.3641%
Source Step = 29.4115%
Source Step = 29.4589%
Source Step = 29.5063%
Source Step = 29.5537%
vernier = 0.0023464
Source Step = 29.6248%
Source Step = 29.6959%
Source Step = 29.767%
Source Step = 29.8381%
Source Step = 29.9092%
vernier = 0.00351959
Source Step = 30.0123%
Source Step = 30.119%
Source Step = 30.2256%
Source Step = 30.3323%
Source Step = 30.439%
vernier = 0.00527939
Source Step = 30.5883%
Source Step = 30.7483%
Source Step = 30.7962%
Source Step = 30.8362%
Source Step = 30.8762%
Source Step = 30.9162%
Source Step = 30.9562%
vernier = 0.00197977
Source Step = 31.0082%
Source Step = 31.0682%
Source Step = 31.1282%
Source Step = 31.1882%
Source Step = 31.2482%
vernier = 0.00296966
Source Step = 31.3232%
Source Step = 31.4132%
Source Step = 31.5032%
Source Step = 31.5932%
Source Step = 31.6831%
vernier = 0.00445449
Source Step = 31.7911%
Source Step = 31.9261%
Source Step = 32.0611%
Source Step = 32.1961%
Source Step = 32.3311%
vernier = 0.00668173
Source Step = 32.4863%
Source Step = 32.6888%
Source Step = 32.8913%
Source Step = 33.0937%
Source Step = 33.2962%
vernier = 0.0100226
Source Step = 33.5189%
Source Step = 33.8226%
Source Step = 34.1264%
Source Step = 34.4301%
Source Step = 34.7338%
vernier = 0.0150339
Source Step = 35.0527%
Source Step = 35.5083%
Source Step = 35.9638%
Source Step = 36.4194%
Source Step = 36.875%
Source Step = 37.3306%
vernier = 0.0225508
Source Step = 38.0139%
Source Step = 38.6973%
Source Step = 39.3806%
Source Step = 40.064%
Source Step = 40.7474%
vernier = 0.0338263
Source Step = 41.7382%
Source Step = 42.7633%
Source Step = 43.7883%
Source Step = 44.8133%
Source Step = 45.8384%
vernier = 0.0507394
Source Step = 47.2734%
Source Step = 47.6963%
Source Step = 47.7924%
Source Step = 47.8885%
Source Step = 47.9845%
Source Step = 48.0806%
Source Step = 48.1767%
vernier = 0.00475682
Source Step = 48.3161%
Source Step = 48.4602%
Source Step = 48.6044%
Source Step = 48.7485%
Source Step = 48.8927%
vernier = 0.00713523
Source Step = 49.0945%
Source Step = 49.3107%
Source Step = 49.5269%
Source Step = 49.7431%
Source Step = 49.9593%
vernier = 0.0107028
Source Step = 50.2512%
Source Step = 50.5756%
Source Step = 50.8999%
Source Step = 51.2242%
Source Step = 51.5486%
vernier = 0.0160543
Source Step = 51.9702%
Source Step = 52.4567%
Source Step = 52.9432%
Source Step = 53.4297%
Source Step = 53.9162%
vernier = 0.0240814
Source Step = 54.5243%
Source Step = 55.0396%
Starting source stepping with srcstepmethod=1
Source Step = 3.0303%
Source Step = 33.3333%
Source Step = 54.7348%
Source Step = 55.0485%
Source stepping failed

Pseudo transient terminated at 100.75 s, solution accepted ready or not!
Ignoring empty pin current: Ix(u1:2)
Ignoring empty pin current: Ix(u1:2)

Date: Mon Jan 29 00:16:34 2024
Total elapsed time: 0.798 seconds.

tnom = 27
temp = 27
method = modified trap
totiter = 13192
traniter = 256
tranpoints = 129
accept = 128
rejected = 26
matrix size = 47
fillins = 48
solver = Normal
Avg thread counts: 11.1/12.0/12.0/11.1
Matrix Compiler1: 4.98 KB object code size  0.9/0.6/[0.4]
Matrix Compiler2: 4.67 KB object code size  0.7/1.0/[0.5]

